           



/*--------------------------------*- C++ -*----------------------------------*\
| =========                 |                                                 |
| \\      /  F ield         | OpenFOAM: The Open Source CFD Toolbox           |
|  \\    /   O peration     | Version:  2.1.1                                 |
|   \\  /    A nd           | Web:      www.OpenFOAM.org                      |
|    \\/     M anipulation  |                                                 |
\*---------------------------------------------------------------------------*/
FoamFile
{
    version     2.0;
    format      ascii;
    class       dictionary;
    object      blockMeshDict;
}
// * * * * * * * * * * * * * * * * * * * * * * * * * * * * * * * * * * * * * //

convertToMeters 1.0;

vertices
(
    (0.5 0 0)     // point 0 (bv1)      
    (1 0 0)     // point 1 (bv2)      
    (2.0 0 0)     // point 2 (bv3)      
    (2.0 0.707106781186511 0)     // point 3 (bv4)      
    (0.707106781186584 0.707106781186511 0)     // point 4 (bv5)      
    (0.353553390593292 0.353553390593292 0)     // point 5 (bv6)      
    (2.0 2.0 0)     // point 6 (bv7)      
    (0.707106781186584 2.0 0)     // point 7 (bv8)      
    (0 2.0 0)     // point 8 (bv9)      
    (0 1 0)     // point 9 (bv10)      
    (0 0.5 0)     // point 10 (bv11)      

    (0.5 0 0.5)     // point 11 (fv1)      
    (1 0 0.5)     // point 12 (fv2)      
    (2.0 0 0.5)     // point 13 (fv3)      
    (2.0 0.707106781186511 0.5)     // point 14 (fv4)      
    (0.707106781186584 0.707106781186511 0.5)     // point 15 (fv5)      
    (0.353553390593292 0.353553390593292 0.5)     // point 16 (fv6)      
    (2.0 2.0 0.5)     // point 17 (fv7)      
    (0.707106781186584 2.0 0.5)     // point 18 (fv8)      
    (0 2.0 0.5)     // point 19 (fv9)      
    (0 1 0.5)     // point 20 (fv10)      
    (0 0.5 0.5)     // point 21 (fv11)      
    
);

blocks
(
    hex (5 4 9 10 16 15 20 21) ( 10 10 1 ) simpleGrading (1 1 1)
    hex (0 1 4 5 11 12 15 16) ( 10 10 1 ) simpleGrading (1 1 1)
    hex (1 2 3 4 12 13 14 15) ( 20 10 1 ) simpleGrading (1 1 1)
    hex (4 3 6 7 15 14 17 18) ( 20 20 1 ) simpleGrading (1 1 1)
    hex (9 4 7 8 20 15 18 19) ( 10 20 1 ) simpleGrading (1 1 1)
);

edges
(
    arc 0 5    (0.461939766255638 0.191341716182557 0)
    arc 5 10    (0.191341716182557 0.461939766255638 0)
    arc 1 4    (0.923879532511277 0.382683432365114 0)
    arc 4 9    (0.382683432365114 0.923879532511277 0)

    arc 11 16    (0.461939766255638 0.191341716182557 0.5)
    arc 16 21    (0.191341716182557 0.461939766255638 0.5)
    arc 12 15    (0.923879532511277 0.382683432365114 0.5)
    arc 15 20    (0.382683432365114 0.923879532511277 0.5)


);

boundary
(
    left
    {
	type	patch;
	faces
	(
	    (8 9 20 19) (9 10 21 20)
	);
    }
    
    right
    {
	type	patch;
	faces
	(
	    (2 3 14 13) (3 6 17 14)
	);
    }
    
    down
    {
	type	patch;
	faces
	(
	    (0 1 12 11) (1 2 13 12)
	);
    }
    
    up
    {
	type	patch;
	faces
	(
	    (7 8 19 18) (6 7 18 17)
	);
    }
    
    hole
    {
	type	patch;
	faces
	(
	    (10 5 16 21) (5 0 11 16)
	);
    }
    
);

mergePatchPairs
(
);

// ************************************************************************* //
