/*--------------------------------*- C++ -*----------------------------------*\
| =========                 |                                                 |
| \\      /  F ield         | OpenFOAM: The Open Source CFD Toolbox           |
|  \\    /   O peration     | Version:  2.1.1                                 |
|   \\  /    A nd           | Web:      www.OpenFOAM.org                      |
|    \\/     M anipulation  |                                                 |
\*---------------------------------------------------------------------------*/
FoamFile
{
    version     2.0;
    format      ascii;
    class       dictionary;
    object      blockMeshDict;
}
// * * * * * * * * * * * * * * * * * * * * * * * * * * * * * * * * * * * * * //

convertToMeters 1;

vertices
(

    (-10 -1 -1)
    ( 40 -1 -1)
    ( 40  2 -1)
    (-10  2 -1)
    (-10 -1  2)
    ( 40 -1  2)
    ( 40  2  2)
    (-10  2  2)

);

blocks
(
    hex (0 1 2 3 4 5 6 7) (100 6 6) simpleGrading (1.0 1.0 1.0)
);

edges
(
);

boundary
(
);

mergePatchPairs
(
);

// ************************************************************************* //

