/*--------------------------------*- C++ -*----------------------------------*\
| =========                 |                                                 |
| \\      /  F ield         | OpenFOAM: The Open Source CFD Toolbox           |
|  \\    /   O peration     | Version:  2.0.1                                 |
|   \\  /    A nd           | Web:      www.OpenFOAM.com                      |
|    \\/     M anipulation  |                                                 |
\*---------------------------------------------------------------------------*/
FoamFile
{
    version     2.0;
    format      ascii;
    class       volScalarField;
    location    "0";
    object      epsilon;
}
// * * * * * * * * * * * * * * * * * * * * * * * * * * * * * * * * * * * * * //

dimensions      [0 0 -1 0 0 0 0];

internalField   uniform 562;

boundaryField
{
    inlet
    {
        type            fixedValue;
        value           uniform 562;
    }
    outlet
    {
        type            zeroGradient;
    }
    tunnel_walls
    {
        type            omegaWallFunction;
        value           uniform 562;
    }
    surface
    {
        type            omegaWallFunction;
        value           uniform 562;
    }
    front_and_back
    {
        type            empty;
    }
}


// ************************************************************************* //
