/*--------------------------------*- C++ -*----------------------------------*\ 
| =========                 |                                                 |
| \      /  F ield         | OpenFOAM: The Open Source CFD Toolbox           |
|  \    /   O peration     | Version:  2.1.1                                 |
|   \  /    A nd           | Web:      www.OpenFOAM.org                      |
|    \/     M anipulation  |                                                 |
\*---------------------------------------------------------------------------*/
 FoamFile
 {
    version     2.0;
    format      ascii;
    class       dictionary;
    object      blockMeshDict;
}
// * * * * * * * * * * * * * * * * * * * * * * * * * * * * * * * * * * * * * //

convertToMeters 1.0;

vertices
(
    (0.0 0 0)
    (10.0 0 0)
    (10.0 1.0 0)
    (0.0 1.0 0)

    (0.0 0 1.0)
    (10.0 0 1.0)
    (10.0 1.0 1.0)
    (0.0 1.0 1.0)
);

blocks
(
    hex ( 0 1 2 3 4 5 6 7) (10 2 2) simpleGrading (1 1 1)
);

edges
(
);

boundary
(
    zfaces
    {
	type	patch;
	faces
	(
	    (0 1 2 3)
	    (4 5 6 7)
	);
    }
    
    yfaces
    {
	type	patch;
	faces
	(
	    (0 1 5 4)
	    (2 3 7 6)
	);
    }
    
    traction
    {
	type	patch;
	faces
	(
	    (1 2 6 5)
	);
    }
    
    fixed
    {
	type	patch;
	faces
	(
	    (0 3 7 4)
	);
    }
);

mergePatchPairs
(
);

// ************************************************************************* //
