/*--------------------------------*- C++ -*----------------------------------*\
| =========                 |                                                 |
| \\      /  F ield         | OpenFOAM: The Open Source CFD Toolbox           |
|  \\    /   O peration     | Version:  2.1.1                                 |
|   \\  /    A nd           | Web:      www.OpenFOAM.org                      |
|    \\/     M anipulation  |                                                 |
\*---------------------------------------------------------------------------*/
FoamFile
{
    version     2.0;
    format      ascii;
    class       dictionary;
    object      blockMeshDict;
}
// * * * * * * * * * * * * * * * * * * * * * * * * * * * * * * * * * * * * * //

convertToMeters 1;

vertices
(
    (0 0 0)	//0
    (2 0 0)	//1
    (2 2 0)	//2
    (0 2 0)	//3
    (0 0 0.5)	//4
    (2 0 0.5)	//5
    (2 2 0.5)	//6
    (0 2 0.5)	//7
);

blocks
(
    hex (0 1 2 3 4 5 6 7) (40 40 1) simpleGrading (1 1 1)
);

edges
(
);

boundary
(
    left
    {
        type symmetryPlane;
        faces
        (
            (0 3 7 4)
        );
    }
    right
    {
        type patch;
        faces
        (
            (1 2 6 5)
        );
    }
    down
    {
        type symmetryPlane;
        faces
        (
            (0 1 5 4)
        );
    }
    up
    {
        type patch;
        faces
        (
            (3 2 6 7)
        );
    }
    frontAndBack
    {
        type empty;
        faces
        (
            (0 1 2 3)
            (4 5 6 7)
        );
    }
);

mergePatchPairs
(
);

// ************************************************************************* //
