/*--------------------------------*- C++ -*----------------------------------*\
| =========                 |                                                 |
| \\      /  F ield         | OpenFOAM: The Open Source CFD Toolbox           |
|  \\    /   O peration     | Version:  2.1.1                                 |
|   \\  /    A nd           | Web:      www.OpenFOAM.org                      |
|    \\/     M anipulation  |                                                 |
\*---------------------------------------------------------------------------*/
FoamFile
{
    version     2.0;
    format      ascii;
    class       dictionary;
    object      blockMeshDict;
}

// * * * * * * * * * * * * * * * * * * * * * * * * * * * * * * * * * * * * * //

convertToMeters 0.001;

vertices
(
//inside
      (  9.9905   0.4362 0.0000)  // 0
      (  0.4362   9.9905 0.0000)  // 1
      ( -0.4362   9.9905 0.0000)  // 2
      ( -9.9905   0.4362 0.0000)  // 3
      ( -9.9905  -0.4362 0.0000)  // 4
      ( -0.4362  -9.9905 0.0000)  // 5
      (  0.4362  -9.9905 0.0000)  // 6
      (  9.9905  -0.4362 0.0000)  // 7
      
      ( 50.0000   2.1800 0.0000)  // 8
      (  2.1800  50.0000 0.0000)  // 9
      ( -2.1800  50.0000 0.0000)  //10
      (-50.0000   2.1800 0.0000)  //11
      (-50.0000  -2.1800 0.0000)  //12
      ( -2.1800 -50.0000 0.0000)  //13
      (  2.1800 -50.0000 0.0000)  //14
      ( 50.0000  -2.1800 0.0000)  //15
      
      ( 74.9289   3.2669 0.0000)  //16
      (  3.2669  74.9289 0.0000)  //17
      ( -3.2669  74.9289 0.0000)  //18
      (-74.9289   3.2669 0.0000)  //19
      (-74.9289  -3.2669 0.0000)  //20
      ( -3.2669 -74.9289 0.0000)  //21
      (  3.2669 -74.9289 0.0000)  //22
      ( 74.9289  -3.2669 0.0000)  //23
      
      
      (  9.9905   0.4362 200.00)  //24
      (  0.4362   9.9905 200.00)  //25
      ( -0.4362   9.9905 200.00)  //26
      ( -9.9905   0.4362 200.00)  //27
      ( -9.9905  -0.4362 200.00)  //28
      ( -0.4362  -9.9905 200.00)  //29
      (  0.4362  -9.9905 200.00)  //30
      (  9.9905  -0.4362 200.00)  //31
      
      ( 50.0000   2.1800 200.00)  //32
      (  2.1800  50.0000 200.00)  //33
      ( -2.1800  50.0000 200.00)  //34
      (-50.0000   2.1800 200.00)  //35
      (-50.0000  -2.1800 200.00)  //36
      ( -2.1800 -50.0000 200.00)  //37
      (  2.1800 -50.0000 200.00)  //38
      ( 50.0000  -2.1800 200.00)  //39
      
      ( 74.9289   3.2669 200.00)  //40
      (  3.2669  74.9289 200.00)  //41
      ( -3.2669  74.9289 200.00)  //42
      (-74.9289   3.2669 200.00)  //43
      (-74.9289  -3.2669 200.00)  //44
      ( -3.2669 -74.9289 200.00)  //45
      (  3.2669 -74.9289 200.00)  //46
      ( 74.9289  -3.2669 200.00)  //47

//outside
      ( 99.9048   4.3619 0.0000)  //48
      ( -4.3619  99.9048 0.0000)  //49
      (-99.9048  -4.3619 0.0000)  //50
      (  4.3619 -99.9048 0.0000)  //51

      ( 99.9048   4.3619 200.00)  //52
      ( -4.3619  99.9048 200.00)  //53
      (-99.9048  -4.3619 200.00)  //54
      (  4.3619 -99.9048 200.00)  //55
);

blocks
(
//inside
      hex ( 0  8  9  1 24 32 33 25) (20 40 60) simpleGrading (1 1 1)	// 0
      hex ( 2 10 11  3 26 34 35 27) (20 40 60) simpleGrading (1 1 1)	// 1
      hex ( 4 12 13  5 28 36 37 29) (20 40 60) simpleGrading (1 1 1)	// 2
      hex ( 6 14 15  7 30 38 39 31) (20 40 60) simpleGrading (1 1 1)	// 3
      hex ( 8 16 17  9 32 40 41 33) (10 40 60) simpleGrading (1 1 1)	// 4
      hex ( 9 17 18 10 33 41 42 34) (10  4 60) simpleGrading (1 1 1)	// 5
      hex (10 18 19 11 34 42 43 35) (10 40 60) simpleGrading (1 1 1)	// 6
      hex (11 19 20 12 35 43 44 36) (10  4 60) simpleGrading (1 1 1)	// 7
      hex (12 20 21 13 36 44 45 37) (10 40 60) simpleGrading (1 1 1)	// 8
      hex (13 21 22 14 37 45 46 38) (10  4 60) simpleGrading (1 1 1)	// 9
      hex (14 22 23 15 38 46 47 39) (10 40 60) simpleGrading (1 1 1)	//10
      hex (15 23 16  8 39 47 40 32) (10  4 60) simpleGrading (1 1 1)	//11
//outside
      hex (16 48 49 18 40 52 53 42) (10 44 60) simpleGrading (1 1 1)	//12
      hex (18 49 50 20 42 53 54 44) (10 44 60) simpleGrading (1 1 1)	//13
      hex (20 50 51 22 44 54 55 46) (10 44 60) simpleGrading (1 1 1)	//15
      hex (22 51 48 16 46 55 52 40) (10 44 60) simpleGrading (1 1 1)	//17
);

edges
(
//inside
      arc   0  1 (   7.0711    7.0711 0.0000)
      arc   2  3 (  -7.0711    7.0711 0.0000)
      arc   4  5 (  -7.0711   -7.0711 0.0000)
      arc   6  7 (   7.0711   -7.0711 0.0000)
      arc   8  9 (  35.3553   35.3553 0.0000)
      arc  10 11 ( -35.3553   35.3553 0.0000)
      arc  12 13 ( -35.3553  -35.3553 0.0000)
      arc  14 15 (  35.3553  -35.3553 0.0000)
      arc  16 17 (  53.0330   53.0330 0.0000)
      arc  17 18 (   0.0000   75.0000 0.0000)
      arc  18 19 ( -53.0330   53.0330 0.0000)
      arc  19 20 ( -75.0000    0.0000 0.0000)
      arc  20 21 ( -53.0330  -53.0330 0.0000)
      arc  21 22 (   0.0000  -75.0000 0.0000)
      arc  22 23 (  53.0330   53.0330 0.0000)
      arc  23 16 (  75.0000    0.0000 0.0000)

      arc  24 25 (   7.0711    7.0711 200.00)
      arc  26 27 (  -7.0711    7.0711 200.00)
      arc  28 29 (  -7.0711   -7.0711 200.00)
      arc  30 31 (   7.0711   -7.0711 200.00)
      arc  32 33 (  35.3553   35.3553 200.00)
      arc  34 35 ( -35.3553   35.3553 200.00)
      arc  36 37 ( -35.3553  -35.3553 200.00)
      arc  38 39 (  35.3553  -35.3553 200.00)
      arc  40 41 (  53.0330   53.0330 200.00)
      arc  41 42 (   0.0000   75.0000 200.00)
      arc  42 43 ( -53.0330   53.0330 200.00)
      arc  43 44 ( -75.0000    0.0000 200.00)
      arc  44 45 ( -53.0330  -53.0330 200.00)
      arc  45 46 (   0.0000  -75.0000 200.00)
      arc  46 47 (  53.0330   53.0330 200.00)
      arc  47 40 (  75.0000    0.0000 200.00)
//outside
      arc  48 49 (  70.7107   70.7107 0.0000)
      arc  49 50 ( -70.7107   70.7107 0.0000)
      arc  50 51 ( -70.7107  -70.7107 0.0000)
      arc  51 48 (  70.7107   70.7107 0.0000)
      arc  52 53 (  70.7107   70.7107 200.00)
      arc  53 54 ( -70.7107   70.7107 200.00)
      arc  54 55 ( -70.7107  -70.7107 200.00)
      arc  55 52 (  70.7107   70.7107 200.00)

      arc  16 18 (  53.0330   53.0330 0.0000)
      arc  18 20 ( -53.0330   53.0330 0.0000)
      arc  20 22 ( -53.0330  -53.0330 0.0000)
      arc  22 16 (  53.0330   53.0330 0.0000)
      arc  40 42 (  53.0330   53.0330 200.00)
      arc  42 44 ( -53.0330   53.0330 200.00)
      arc  44 46 ( -53.0330  -53.0330 200.00)
      arc  46 40 (  53.0330   53.0330 200.00)

);

boundary
(
    inlet
    {
        type patch;
        faces
        (
            ( 0  8  9  1)
            ( 2 10 11  3)
            ( 4 12 13  5)
            ( 6 14 15  7)
            ( 8 16 17  9)
            ( 9 17 18 10)
            (10 18 19 11)
            (11 19 20 12)
            (12 20 21 13)
            (13 21 22 14)
            (14 22 23 15)
            (15 23 16  8)
            (16 48 49 18)
            (18 49 50 20)
            (20 50 51 22)
            (22 51 48 16)
        );
    }
    outlet
    {
        type patch;
        faces
        (
    	    (24 32 33 25)
    	    (26 34 35 27)
    	    (28 36 37 29)
    	    (30 38 39 31)
    	    (32 40 41 33)
    	    (33 41 42 34)
    	    (34 42 43 35)
    	    (35 43 44 36)
    	    (36 44 45 37)
    	    (37 45 46 38)
    	    (38 46 47 39)
    	    (39 47 40 32)
    	    (40 52 53 42)
    	    (42 53 54 44)
    	    (44 54 55 46)
    	    (46 55 52 40)
        );
    }
    wall_inside
    {
        type wall;
        faces
        (
    	    ( 0  1 25 24)
    	    ( 1  9 33 25)
    	    ( 9 10 34 33)
    	    (10  2 26 34)
    	    ( 2  3 27 26)
    	    ( 3 11 35 27)
    	    (11 12 36 35)
    	    (12  4 28 36)
    	    ( 4  5 29 28)
    	    ( 5 13 37 29)
    	    (13 14 38 37)
    	    (14  6 30 38)
    	    ( 6  7 31 30)
    	    ( 7 15 39 31)
    	    (15  8 32 39)
    	    ( 8  0 24 32)
        );
    }
    wall_outside
    {
        type wall;
        faces
        (
            (48 49 53 52)
            (49 50 54 53)
            (50 51 55 54)
            (51 48 52 55)
        );
    }
    ami_inside
    {
        type wall;
        faces
        (
    	    (16 17 41 40)
    	    (17 18 42 41)
    	    (18 19 43 42)
    	    (19 20 44 43)
    	    (20 21 45 44)
    	    (21 22 46 45)
    	    (22 23 47 46)
    	    (23 16 40 47)
        );
    }
    ami_outside
    {
        type wall;
        faces
        (
            (16 18 42 40)
            (18 20 44 42)
            (20 22 46 44)
            (22 16 40 46)
        );
    }
);

mergeMatchPairs
(
);

// ************************************************************************* //
