/*--------------------------------*- C++ -*----------------------------------*\
| =========                 |                                                 |
| \\      /  F ield         | OpenFOAM: The Open Source CFD Toolbox           |
|  \\    /   O peration     | Version:  2.0.1                                 |
|   \\  /    A nd           | Web:      www.OpenFOAM.com                      |
|    \\/     M anipulation  |                                                 |
\*---------------------------------------------------------------------------*/
FoamFile
{
    version     2.0;
    format      ascii;
    class       dictionary;
    object      blockMeshDict;
}
// * * * * * * * * * * * * * * * * * * * * * * * * * * * * * * * * * * * * *) //

convertToMeters 0.001;

vertices
(

(-1000.0     0.0     0.0    ) //   0 profile surface
(-1000.0   610.0     0.3111 ) //   1
(-1000.0   610.0    -0.3111 ) //   2
(    0.0     0.0     0.0    ) //   3
(    0.0   610.0     0.3111 ) //   4
(    0.0   610.0    -0.3111 ) //   5
( 1000.0     0.0     0.0    ) //   6
( 1000.0   610.0     0.3111 ) //   7
( 1000.0   610.0    -0.3111 ) //   8

(-1000.0 -1000.0     0.0    ) //   9 tunnel middle points
(-1000.0  1610.0     0.3111 ) //  10
(-1000.0  1610.0    -0.3111 ) //  11
(    0.0 -1000.0     0.0    ) //  12
(    0.0  1610.0     0.3111 ) //  13
(    0.0  1610.0    -0.3111 ) //  14
( 1000.0 -1000.0     0.0    ) //  15
( 1000.0  1610.0     0.3111 ) //  16
( 1000.0  1610.0    -0.3111 ) //  17

(-1000.0 -1000.0   482.6    ) //  18 tunnel upper walls
(-1000.0     0.0   482.6    ) //  19
(-1000.0   610.0   482.6    ) //  20
(-1000.0  1610.0   482.6    ) //  21
(    0.0 -1000.0   482.6    ) //  22
(    0.0     0.0   482.6    ) //  23
(    0.0   610.0   482.6    ) //  24
(    0.0  1610.0   482.6    ) //  25
( 1000.0 -1000.0   482.6    ) //  26
( 1000.0     0.0   482.6    ) //  27
( 1000.0   610.0   482.6    ) //  28
( 1000.0  1610.0   482.6    ) //  29

(-1000.0 -1000.0  -482.6    ) //  30 tunnel lower walls
(-1000.0     0.0  -482.6    ) //  31
(-1000.0   610.0  -482.6    ) //  32
(-1000.0  1610.0  -482.6    ) //  33
(    0.0 -1000.0  -482.6    ) //  34
(    0.0     0.0  -482.6    ) //  35
(    0.0   610.0  -482.6    ) //  36
(    0.0  1610.0  -482.6    ) //  37
( 1000.0 -1000.0  -482.6    ) //  38
( 1000.0     0.0  -482.6    ) //  39
( 1000.0   610.0  -482.6    ) //  40
( 1000.0  1610.0  -482.6    ) //  41

(-1000.0   610.0     0.0    ) //  42 midle points
(-1000.0  1610.0     0.0    ) //  43
(    0.0   610.0     0.0    ) //  44
(    0.0  1610.0     0.0    ) //  45
( 1000.0   610.0     0.0    ) //  46
( 1000.0  1610.0     0.0    ) //  47



);

blocks
(
    hex ( 9 12  3  0 18 22 23 19) (20  50 40) simpleGrading (1 0.25  4)        //1
    hex ( 0  3  4  1 19 23 24 20) (20  60 40) simpleGrading (1 1.0   4)        //2
    hex ( 1  4 13 10 20 24 25 21) (20  100 40) simpleGrading (1 4.0   4)        //3
    hex ( 0  3 44 42  0  3  4  1) (20  60  6) simpleGrading (1 1.0   0.5)      //4
    hex (42 44 45 43  1  4 13 10) (20  100  6) simpleGrading (1 4.0   0.5)      //5
    hex ( 0  3  5  2  0  3 44 42) (20  60  6) simpleGrading (1 1.0   2)        //6
    hex ( 2  5 14 11 42 44 45 43) (20  100  6) simpleGrading (1 4.0   2)        //7
    hex (30 34 35 31  9 12  3  0) (20  50 40) simpleGrading (1 0.25  0.25)     //8
    hex (31 35 36 32  0  3  5  2) (20  60 40) simpleGrading (1 1.0   0.25)     //9
    hex (32 36 37 33  2  5 14 11) (20  100 40) simpleGrading (1 4.0   0.25)     //10

    hex (12 15  6  3 22 26 27 23) (20  50 40) simpleGrading (1 0.25  4)        //1
    hex ( 3  6  7  4 23 27 28 24) (20  60 40) simpleGrading (1 1.0   4)        //2
    hex ( 4  7 16 13 24 28 29 25) (20  100 40) simpleGrading (1 4.0   4)        //3
    hex (44 46 47 45  4  7 16 13) (20  100  6) simpleGrading (1 4.0   0.5)      //5
    hex ( 5  8 17 14 44 46 47 45) (20  100  6) simpleGrading (1 4.0   2)        //7
    hex (34 38 39 35 12 15  6  3) (20  50 40) simpleGrading (1 0.25  0.25)     //8
    hex (35 39 40 36  3  6  8  5) (20  60 40) simpleGrading (1 1.0   0.25)     //9
    hex (36 40 41 37  5  8 17 14) (20  100 40) simpleGrading (1 4.0   0.25)     //10

);

edges
(
  spline 6 7
(
( 1000.0     1.22    4.5079 )
( 1000.0     3.05    6.283  )
( 1000.0     6.1     9.1561 )
( 1000.0    15.25   13.7433 )
( 1000.0    30.5    18.7636 )
( 1000.0    61.0    25.6932 )
( 1000.0    91.5    30.3719 )
( 1000.0   122.0    33.7574 )
( 1000.0   152.5    36.1669 )
( 1000.0   183.0    37.8505 )
( 1000.0   213.5    38.9119 )
( 1000.0   244.0    39.2596 )
( 1000.0   274.5    38.796  )
( 1000.0   305.0    37.5821 )
( 1000.0   335.5    35.746  )
( 1000.0   366.0    33.3243 )
( 1000.0   396.5    30.3353 )
( 1000.0   422.73   27.3463 )
( 1000.0   427.0    26.8217 )
( 1000.0   457.5    22.8445 )
( 1000.0   483.73   19.1052 )
( 1000.0   488.0    18.4708 )
( 1000.0   514.23   14.5363 )
( 1000.0   518.5    13.8897 )
( 1000.0   549.0     9.272  )
( 1000.0   559.98    7.6128 )
( 1000.0   573.4     5.5876 )
( 1000.0   579.5     4.6726 )
( 1000.0   591.7     2.8853 )
( 1000.0   594.75    2.44   )
( 1000.0   603.9     1.1468 )
)
  spline 3 4
(
(  0.0     1.22    4.5079 )
(  0.0     3.05    6.283  )
(  0.0     6.1     9.1561 )
(  0.0    15.25   13.7433 )
(  0.0    30.5    18.7636 )
(  0.0    61.0    25.6932 )
(  0.0    91.5    30.3719 )
(  0.0   122.0    33.7574 )
(  0.0   152.5    36.1669 )
(  0.0   183.0    37.8505 )
(  0.0   213.5    38.9119 )
(  0.0   244.0    39.2596 )
(  0.0   274.5    38.796  )
(  0.0   305.0    37.5821 )
(  0.0   335.5    35.746  )
(  0.0   366.0    33.3243 )
(  0.0   396.5    30.3353 )
(  0.0   422.73   27.3463 )
(  0.0   427.0    26.8217 )
(  0.0   457.5    22.8445 )
(  0.0   483.73   19.1052 )
(  0.0   488.0    18.4708 )
(  0.0   514.23   14.5363 )
(  0.0   518.5    13.8897 )
(  0.0   549.0     9.272  )
(  0.0   559.98    7.6128 )
(  0.0   573.4     5.5876 )
(  0.0   579.5     4.6726 )
(  0.0   591.7     2.8853 )
(  0.0   594.75    2.44   )
(  0.0   603.9     1.1468 )
)
  spline  0 1
(
(-1000.0     1.22    4.5079 )
(-1000.0     3.05    6.283  )
(-1000.0     6.1     9.1561 )
(-1000.0    15.25   13.7433 )
(-1000.0    30.5    18.7636 )
(-1000.0    61.0    25.6932 )
(-1000.0    91.5    30.3719 )
(-1000.0   122.0    33.7574 )
(-1000.0   152.5    36.1669 )
(-1000.0   183.0    37.8505 )
(-1000.0   213.5    38.9119 )
(-1000.0   244.0    39.2596 )
(-1000.0   274.5    38.796  )
(-1000.0   305.0    37.5821 )
(-1000.0   335.5    35.746  )
(-1000.0   366.0    33.3243 )
(-1000.0   396.5    30.3353 )
(-1000.0   422.73   27.3463 )
(-1000.0   427.0    26.8217 )
(-1000.0   457.5    22.8445 )
(-1000.0   483.73   19.1052 )
(-1000.0   488.0    18.4708 )
(-1000.0   514.23   14.5363 )
(-1000.0   518.5    13.8897 )
(-1000.0   549.0     9.272  )
(-1000.0   559.98    7.6128 )
(-1000.0   573.4     5.5876 )
(-1000.0   579.5     4.6726 )
(-1000.0   591.7     2.8853 )
(-1000.0   594.75    2.44   )
(-1000.0   603.9     1.1468 )
)
  spline 6 8
(
( 1000.0     1.22   -5.6059 )
( 1000.0     3.05   -6.3257 )
( 1000.0     6.1    -9.0158 )
( 1000.0    15.25  -11.8035 )
( 1000.0    30.5   -14.213  )
( 1000.0    61.0   -17.4826 )
( 1000.0    91.5   -20.191  )
( 1000.0   122.0   -22.4297 )
( 1000.0   152.5   -24.339  )
( 1000.0   183.0   -24.6257 )
( 1000.0   213.5   -24.3085 )
( 1000.0   244.0   -23.1739 )
( 1000.0   274.5   -21.5147 )
( 1000.0   305.0   -19.6054 )
( 1000.0   335.5   -17.6168 )
( 1000.0   366.0   -15.5977 )
( 1000.0   396.5   -13.5725 )
( 1000.0   427.0   -11.5717 )
( 1000.0   457.5    -9.5953 )
( 1000.0   488.0    -7.6433 )
( 1000.0   518.5    -5.7096 )
( 1000.0   544.73   -4.0504 )
( 1000.0   559.98   -3.0927 )
( 1000.0   573.4    -2.2692 )
( 1000.0   579.5    -1.9093 )
( 1000.0   591.7    -1.22   )
( 1000.0   594.75   -1.0553 )
( 1000.0   603.9    -0.5856 )
)
  spline 3 5
(
(  0.0     1.22   -5.6059 )
(  0.0     3.05   -6.3257 )
(  0.0     6.1    -9.0158 )
(  0.0    15.25  -11.8035 )
(  0.0    30.5   -14.213  )
(  0.0    61.0   -17.4826 )
(  0.0    91.5   -20.191  )
(  0.0   122.0   -22.4297 )
(  0.0   152.5   -24.339  )
(  0.0   183.0   -24.6257 )
(  0.0   213.5   -24.3085 )
(  0.0   244.0   -23.1739 )
(  0.0   274.5   -21.5147 )
(  0.0   305.0   -19.6054 )
(  0.0   335.5   -17.6168 )
(  0.0   366.0   -15.5977 )
(  0.0   396.5   -13.5725 )
(  0.0   427.0   -11.5717 )
(  0.0   457.5    -9.5953 )
(  0.0   488.0    -7.6433 )
(  0.0   518.5    -5.7096 )
(  0.0   544.73   -4.0504 )
(  0.0   559.98   -3.0927 )
(  0.0   573.4    -2.2692 )
(  0.0   579.5    -1.9093 )
(  0.0   591.7    -1.22   )
(  0.0   594.75   -1.0553 )
(  0.0   603.9    -0.5856 )
)
  spline  0 2
(
(-1000.0     1.22   -5.6059 )
(-1000.0     3.05   -6.3257 )
(-1000.0     6.1    -9.0158 )
(-1000.0    15.25  -11.8035 )
(-1000.0    30.5   -14.213  )
(-1000.0    61.0   -17.4826 )
(-1000.0    91.5   -20.191  )
(-1000.0   122.0   -22.4297 )
(-1000.0   152.5   -24.339  )
(-1000.0   183.0   -24.6257 )
(-1000.0   213.5   -24.3085 )
(-1000.0   244.0   -23.1739 )
(-1000.0   274.5   -21.5147 )
(-1000.0   305.0   -19.6054 )
(-1000.0   335.5   -17.6168 )
(-1000.0   366.0   -15.5977 )
(-1000.0   396.5   -13.5725 )
(-1000.0   427.0   -11.5717 )
(-1000.0   457.5    -9.5953 )
(-1000.0   488.0    -7.6433 )
(-1000.0   518.5    -5.7096 )
(-1000.0   544.73   -4.0504 )
(-1000.0   559.98   -3.0927 )
(-1000.0   573.4    -2.2692 )
(-1000.0   579.5    -1.9093 )
(-1000.0   591.7    -1.22   )
(-1000.0   594.75   -1.0553 )
(-1000.0   603.9    -0.5856 )
)


);

boundary
(
    inlet
    {
        type patch;
        faces
        (
	    ( 9 18 22 12)
	    (30  9 12 34)
	    (12 22 26 15)
	    (34 12 15 38)
        );
    }
    outlet
    {
        type patch;
        faces
        (
	    (33 11 14 37)
	    (11 43 45 14)
	    (43 10 13 45)
	    (10 21 25 13)
	    (13 25 29 16)
	    (45 13 16 47)
	    (14 45 47 17)
	    (37 14 17 41)
        );
    }
    tunnel_walls
    {
        type wall;
        faces
        (
            (18 19 23 22)
            (19 20 24 23)
            (20 21 25 24)
            (30 31 35 34)
            (31 32 36 35)
            (32 33 37 36)
            (22 23 27 26)
            (23 24 28 27)
            (24 25 29 28)
            (34 35 39 38)
            (35 36 40 39)
            (36 37 41 40)
        );
    }
    surface
    {
        type wall;
        faces
        (
            ( 3  4  7  6)
            ( 3  5  8  6)
            ( 3 44  4  3)
            ( 3  5 44  3)
            (44  4  7 46)
            ( 5 44 46  8)
        );
    }
    front_and_back
    {
        type symmetryPlane;
        faces
        (
            ( 9  0 19 18)
            ( 0  1 20 19)
            ( 1 10 21 20)
            ( 0 42  1  0)
            ( 0  2 42  0)
            (42 43 10  1)
            ( 2 11 43 42)
            (30 31  0  9)
            (31 32  2  0)
            (32 33 11  2)
            (15  6 27 26)
            ( 6  7 28 27)
            ( 7 16 29 28)
            (46 47 16  7)
            ( 8 17 47 46)
            (38 39  6 15)
            (39 40  8  6)
            (40 41 17  8)
        );
    }
 );

mergePatchPairs
(
);

// ************************************************************************* //
